<nodes>
    <!-- 主干道节点 -->
    <node id="n0" x="0" y="0" />
    <node id="n1" x="500" y="0" />
    <node id="n2" x="1000" y="0" />
    <node id="n3" x="1500" y="0" />
    
    <!-- 支路节点 -->
    <node id="n4" x="500" y="300" />
    <node id="n5" x="1000" y="300" />
    
    <!-- 环路节点 -->
    <node id="n6" x="250" y="-200" />
    <node id="n7" x="750" y="-200" />
    <node id="n8" x="1250" y="-200" />
</nodes>