<configuration>
    <input>
        <net-file value="road.net.xml"/>
        <route-files value="road.rou.xml"/>
    </input>
    <time>
        <begin value="0"/>
        <end value="200"/> </time>
</configuration>