<nodes>
    <node id="node0" x="0.0" y="0.0" />  <node id="node1" x="1000.0" y="0.0" /> </nodes>